#======================================================================

# CRYSTAL DATA

#----------------------------------------------------------------------

data_VESTA_phase_1


_chemical_name_common                  'COMMENT                               '
_cell_length_a                         6.40444
_cell_length_b                         6.21192
_cell_length_c                         11.66782
_cell_angle_alpha                      90.13599
_cell_angle_beta                       91.21365
_cell_angle_gamma                      112.81617
_space_group_name_H-M_alt              'P 1'
_space_group_IT_number                 1

loop_
_space_group_symop_operation_xyz
   'x, y, z'

loop_
   _atom_site_label
   _atom_site_occupancy
   _atom_site_fract_x
   _atom_site_fract_y
   _atom_site_fract_z
   _atom_site_adp_type
   _atom_site_B_iso_or_equiv
   _atom_site_type_symbol
   H1         1.0     0.806429      0.762251      0.766249     Biso  1.000000 H
   H2         1.0     0.797634      0.846468      0.979229     Biso  1.000000 H
   H3         1.0     0.715286      0.488061      0.902960     Biso  1.000000 H
   H4         1.0     0.705123      0.658934      0.479092     Biso  1.000000 H
   H5         1.0     0.695094      0.742336      0.266139     Biso  1.000000 H
   H6         1.0     0.784830      0.015937      0.403270     Biso  1.000000 H
   H7         1.0     0.195368      0.238488      0.261953     Biso  1.000000 H
   H8         1.0     0.206361      0.155585      0.474960     Biso  1.000000 H
   H9         1.0     0.282744      0.511076      0.399124     Biso  1.000000 H
   H10        1.0     0.294119      0.340813      0.974995     Biso  1.000000 H
   H11        1.0     0.302367      0.256420      0.762015     Biso  1.000000 H
   H12        1.0     0.218174      0.985474      0.898916     Biso  1.000000 H
   C1         1.0     0.789536      0.917599      0.798407     Biso  1.000000 C
   C2         1.0     0.782719      0.965714      0.914748     Biso  1.000000 C
   C3         1.0     0.755936      0.170744      0.951998     Biso  1.000000 C
   C4         1.0     0.735432      0.332920      0.873471     Biso  1.000000 C
   C5         1.0     0.743836      0.285877      0.757554     Biso  1.000000 C
   C6         1.0     0.748303      0.287800      0.573517     Biso  1.000000 C
   C7         1.0     0.771107      0.082003      0.723315     Biso  1.000000 C
   C8         1.0     0.744267      0.333270      0.452070     Biso  1.000000 C
   C9         1.0     0.718472      0.538795      0.414706     Biso  1.000000 C
   C10        1.0     0.710971      0.586561      0.298287     Biso  1.000000 C
   C11        1.0     0.750893      0.215770      0.073476     Biso  1.000000 C
   C12        1.0     0.728062      0.421511      0.223234     Biso  1.000000 C
   C13        1.0     0.754907      0.217397      0.257623     Biso  1.000000 C
   C14        1.0     0.764467      0.170957      0.373615     Biso  1.000000 C
   C15        1.0     0.211408      0.082879      0.294157     Biso  1.000000 C
   C16        1.0     0.219186      0.035272      0.410564     Biso  1.000000 C
   C17        1.0     0.244521      0.829449      0.447914     Biso  1.000000 C
   C18        1.0     0.263643      0.666694      0.369483     Biso  1.000000 C
   C19        1.0     0.254770      0.713453      0.253468     Biso  1.000000 C
   C20        1.0     0.251510      0.712108      0.069314     Biso  1.000000 C
   C21        1.0     0.228404      0.917732      0.219098     Biso  1.000000 C
   C22        1.0     0.256484      0.667123      0.947861     Biso  1.000000 C
   C23        1.0     0.281174      0.461045      0.910599     Biso  1.000000 C
   C24        1.0     0.287516      0.412655      0.794211     Biso  1.000000 C
   C25        1.0     0.248756      0.784057      0.569383     Biso  1.000000 C
   C26        1.0     0.270993      0.578016      0.719168     Biso  1.000000 C
   C27        1.0     0.245093      0.782548      0.753444     Biso  1.000000 C
   C28        1.0     0.237130      0.829728      0.869350     Biso  1.000000 C
   N1         1.0     0.730617      0.412271      0.660378     Biso  1.000000 N
   N2         1.0     0.767609      0.090788      0.160374     Biso  1.000000 N
   N3         1.0     0.267854      0.586955      0.156281     Biso  1.000000 N
   N4         1.0     0.232082      0.909031      0.656260     Biso  1.000000 N
   O1         1.0     0.774490      0.079139      0.604589     Biso  1.000000 O
   O2         1.0     0.724954      0.424578      0.104443     Biso  1.000000 O
   O3         1.0     0.225561      0.920891      0.100309     Biso  1.000000 O
   O4         1.0     0.273807      0.574829      0.600425     Biso  1.000000 O
