#======================================================================

# CRYSTAL DATA

#----------------------------------------------------------------------

data_VESTA_phase_1


_chemical_name_common                  'h6 c14 n2 o2'
_cell_length_a                         3.46593
_cell_length_b                         5.28476
_cell_length_c                         11.67061
_cell_angle_alpha                      89.93615
_cell_angle_beta                       89.80023
_cell_angle_gamma                      87.92939
_space_group_name_H-M_alt              'P 1'
_space_group_IT_number                 1

loop_
_space_group_symop_operation_xyz
   'x, y, z'

loop_
   _atom_site_label
   _atom_site_occupancy
   _atom_site_fract_x
   _atom_site_fract_y
   _atom_site_fract_z
   _atom_site_adp_type
   _atom_site_B_iso_or_equiv
   _atom_site_type_symbol
   H1         1.0     0.562802      0.630783      0.764407     Biso  1.000000 H
   H2         1.0     0.636809      0.537156      0.977295     Biso  1.000000 H
   H3         1.0     0.191364      0.813505      0.900866     Biso  1.000000 H
   H4         1.0     0.335303      0.628343      0.477031     Biso  1.000000 H
   H5         1.0     0.409941      0.534853      0.264093     Biso  1.000000 H
   H6         1.0     0.780914      0.352057      0.401002     Biso  1.000000 H
   C7         1.0     0.700055      0.458512      0.796465     Biso  1.000000 C
   C8         1.0     0.740684      0.403327      0.912783     Biso  1.000000 C
   C9         1.0     0.916933      0.171288      0.949964     Biso  1.000000 C
   C10        1.0     0.058172      0.989043      0.871388     Biso  1.000000 C
   C11        1.0     0.019933      0.044657      0.755458     Biso  1.000000 C
   C12        1.0     0.019541      0.045205      0.571388     Biso  1.000000 C
   C13        1.0     0.844028      0.275587      0.721282     Biso  1.000000 C
   C14        1.0     0.055386      0.994260      0.449911     Biso  1.000000 C
   C15        1.0     0.231629      0.762226      0.412596     Biso  1.000000 C
   C16        1.0     0.272554      0.707101      0.296252     Biso  1.000000 C
   C17        1.0     0.128654      0.890050      0.221186     Biso  1.000000 C
   C18        1.0     0.953010      0.120362      0.071414     Biso  1.000000 C
   C19        1.0     0.952713      0.120962      0.255490     Biso  1.000000 C
   C20        1.0     0.914200      0.176530      0.371441     Biso  1.000000 C
   N21        1.0     0.129181      0.904234      0.658159     Biso  1.000000 N
   N22        1.0     0.843524      0.261360      0.158274     Biso  1.000000 N
   O23        1.0     0.840393      0.280689      0.602477     Biso  1.000000 O
   O24        1.0     0.132275      0.884909      0.102378     Biso  1.000000 O
