#======================================================================

# CRYSTAL DATA

#----------------------------------------------------------------------

data_VESTA_phase_1


_chemical_name_common                  'h8 c8 f8'
_cell_length_a                         4.45868
_cell_length_b                         8.44829
_cell_length_c                         4.54252
_cell_angle_alpha                      90
_cell_angle_beta                       91.48950
_cell_angle_gamma                      90
_space_group_name_H-M_alt              'P 1'
_space_group_IT_number                 1

loop_
_space_group_symop_operation_xyz
   'x, y, z'

loop_
   _atom_site_label
   _atom_site_occupancy
   _atom_site_fract_x
   _atom_site_fract_y
   _atom_site_fract_z
   _atom_site_adp_type
   _atom_site_B_iso_or_equiv
   _atom_site_type_symbol
   C1         1.0     0.670097      0.182021      0.796648     Biso  1.000000 C
   C2         1.0     0.770807      0.181210      0.114132     Biso  1.000000 C
   C3         1.0     0.329903      0.682021      0.703352     Biso  1.000000 C
   C4         1.0     0.229193      0.681210      0.385868     Biso  1.000000 C
   C5         1.0     0.329903      0.817979      0.203352     Biso  1.000000 C
   C6         1.0     0.229193      0.818790      0.885868     Biso  1.000000 C
   C7         1.0     0.670097      0.317979      0.296648     Biso  1.000000 C
   C8         1.0     0.770807      0.318790      0.614132     Biso  1.000000 C
   F9         1.0     0.352124      0.169112      0.776691     Biso  1.000000 F
   F10        1.0     0.771493      0.036797      0.677346     Biso  1.000000 F
   F11        1.0     0.647876      0.669112      0.723309     Biso  1.000000 F
   F12        1.0     0.228507      0.536797      0.822654     Biso  1.000000 F
   F13        1.0     0.647876      0.830888      0.223309     Biso  1.000000 F
   F14        1.0     0.228507      0.963203      0.322654     Biso  1.000000 F
   F15        1.0     0.352124      0.330888      0.276691     Biso  1.000000 F
   F16        1.0     0.771493      0.463203      0.177346     Biso  1.000000 F
   H17        1.0     0.013497      0.177500      0.124095     Biso  1.000000 H
   H18        1.0     0.689883      0.073665      0.212901     Biso  1.000000 H
   H19        1.0     0.986503      0.677500      0.375905     Biso  1.000000 H
   H20        1.0     0.310117      0.573665      0.287099     Biso  1.000000 H
   H21        1.0     0.986503      0.822500      0.875905     Biso  1.000000 H
   H22        1.0     0.310117      0.926335      0.787099     Biso  1.000000 H
   H23        1.0     0.013497      0.322500      0.624095     Biso  1.000000 H
   H24        1.0     0.689883      0.426335      0.712901     Biso  1.000000 H
