#======================================================================

# CRYSTAL DATA

#----------------------------------------------------------------------

data_VESTA_phase_1


_chemical_name_common                  'COMMENT                               '
_cell_length_a                         4.47416
_cell_length_b                         8.40714
_cell_length_c                         4.54844
_cell_angle_alpha                      90.00053
_cell_angle_beta                       91.28001
_cell_angle_gamma                      89.99980
_space_group_name_H-M_alt              'P 1'
_space_group_IT_number                 1

loop_
_space_group_symop_operation_xyz
   'x, y, z'

loop_
   _atom_site_label
   _atom_site_occupancy
   _atom_site_fract_x
   _atom_site_fract_y
   _atom_site_fract_z
   _atom_site_adp_type
   _atom_site_B_iso_or_equiv
   _atom_site_type_symbol
   C1         1.0     0.684119      0.181937      0.795442     Biso  1.000000 C
   C2         1.0     0.785889      0.181318      0.111849     Biso  1.000000 C
   C3         1.0     0.684107      0.318061      0.295451     Biso  1.000000 C
   C4         1.0     0.785883      0.318672      0.611858     Biso  1.000000 C
   C5         1.0     0.341888      0.818066      0.204564     Biso  1.000000 C
   C6         1.0     0.240155      0.818692      0.888142     Biso  1.000000 C
   C7         1.0     0.341901      0.681936      0.704555     Biso  1.000000 C
   C8         1.0     0.240160      0.681318      0.388132     Biso  1.000000 C
   F1         1.0     0.367230      0.170270      0.777904     Biso  1.000000 F
   F2         1.0     0.782768      0.035546      0.676032     Biso  1.000000 F
   F3         1.0     0.367209      0.329737      0.277928     Biso  1.000000 F
   F4         1.0     0.782764      0.464465      0.176082     Biso  1.000000 F
   F5         1.0     0.658767      0.829750      0.222135     Biso  1.000000 F
   F6         1.0     0.243183      0.964445      0.323984     Biso  1.000000 F
   F7         1.0     0.658789      0.670244      0.722111     Biso  1.000000 F
   F8         1.0     0.243186      0.535544      0.823933     Biso  1.000000 F
   H1         1.0     0.027787      0.178846      0.120081     Biso  1.000000 H
   H2         1.0     0.707634      0.072796      0.210916     Biso  1.000000 H
   H3         1.0     0.027774      0.321138      0.620096     Biso  1.000000 H
   H4         1.0     0.707623      0.427186      0.710953     Biso  1.000000 H
   H5         1.0     0.998261      0.821202      0.879869     Biso  1.000000 H
   H6         1.0     0.318497      0.927199      0.789083     Biso  1.000000 H
   H7         1.0     0.998274      0.678813      0.379854     Biso  1.000000 H
   H8         1.0     0.318507      0.572819      0.289046     Biso  1.000000 H
