#======================================================================

# CRYSTAL DATA

#----------------------------------------------------------------------

data_VESTA_phase_1


_chemical_name_common                  'COMMENT                               '
_cell_length_a                         7.73007
_cell_length_b                         4.22101
_cell_length_c                         2.53639
_cell_angle_alpha                      89.91539
_cell_angle_beta                       89.99879
_cell_angle_gamma                      89.99849
_space_group_name_H-M_alt              'P 1'
_space_group_IT_number                 1

loop_
_space_group_symop_operation_xyz
   'x, y, z'

loop_
   _atom_site_label
   _atom_site_occupancy
   _atom_site_fract_x
   _atom_site_fract_y
   _atom_site_fract_z
   _atom_site_adp_type
   _atom_site_B_iso_or_equiv
   _atom_site_type_symbol
   C1         1.0     0.250001      0.364435      0.119254     Biso  1.000000 C
   C2         1.0     0.249999      0.556945      0.618728     Biso  1.000000 C
   C3         1.0     0.749999      0.635565      0.130746     Biso  1.000000 C
   C4         1.0     0.750001      0.443053      0.631272     Biso  1.000000 C
   F1         1.0     0.105737      0.764733      0.618181     Biso  1.000000 F
   F2         1.0     0.394257      0.764727      0.618173     Biso  1.000000 F
   F3         1.0     0.894264      0.235267      0.631819     Biso  1.000000 F
   F4         1.0     0.605741      0.235272      0.631827     Biso  1.000000 F
   H1         1.0     0.136552      0.214081      0.119704     Biso  1.000000 H
   H2         1.0     0.363451      0.214066      0.119687     Biso  1.000000 H
   H3         1.0     0.863449      0.785921      0.130296     Biso  1.000000 H
   H4         1.0     0.636548      0.785935      0.130313     Biso  1.000000 H
