#======================================================================

# CRYSTAL DATA

#----------------------------------------------------------------------

data_VESTA_phase_1


_chemical_name_common                  'COMMENT                               '
_cell_length_a                         4.49422
_cell_length_b                         8.29032
_cell_length_c                         4.55198
_cell_angle_alpha                      90.00008
_cell_angle_beta                       89.99712
_cell_angle_gamma                      90.00303
_space_group_name_H-M_alt              'P 1'
_space_group_IT_number                 1

loop_
_space_group_symop_operation_xyz
   'x, y, z'

loop_
   _atom_site_label
   _atom_site_occupancy
   _atom_site_fract_x
   _atom_site_fract_y
   _atom_site_fract_z
   _atom_site_adp_type
   _atom_site_B_iso_or_equiv
   _atom_site_type_symbol
   C1         1.0     0.720697      0.181315      0.646796     Biso  1.000000 C
   C2         1.0     0.820887      0.179629      0.961534     Biso  1.000000 C
   C3         1.0     0.720658      0.318650      0.146798     Biso  1.000000 C
   C4         1.0     0.820917      0.320338      0.461520     Biso  1.000000 C
   C5         1.0     0.220685      0.681347      0.553214     Biso  1.000000 C
   C6         1.0     0.320934      0.679673      0.238486     Biso  1.000000 C
   C7         1.0     0.220702      0.818690      0.053208     Biso  1.000000 C
   C8         1.0     0.320954      0.820365      0.738477     Biso  1.000000 C
   F1         1.0     0.406134      0.169471      0.634435     Biso  1.000000 F
   F2         1.0     0.821533      0.033293      0.524198     Biso  1.000000 F
   F3         1.0     0.406087      0.330452      0.134461     Biso  1.000000 F
   F4         1.0     0.821425      0.466688      0.024191     Biso  1.000000 F
   F5         1.0     0.906121      0.669572      0.565535     Biso  1.000000 F
   F6         1.0     0.321398      0.533292      0.675799     Biso  1.000000 F
   F7         1.0     0.906147      0.830484      0.065535     Biso  1.000000 F
   F8         1.0     0.321492      0.966734      0.175793     Biso  1.000000 F
   H1         1.0     0.061715      0.175454      0.967171     Biso  1.000000 H
   H2         1.0     0.737266      0.070327      0.060481     Biso  1.000000 H
   H3         1.0     0.061752      0.324499      0.467081     Biso  1.000000 H
   H4         1.0     0.737357      0.429642      0.560497     Biso  1.000000 H
   H5         1.0     0.561760      0.675577      0.232925     Biso  1.000000 H
   H6         1.0     0.237459      0.570347      0.139497     Biso  1.000000 H
   H7         1.0     0.561781      0.824463      0.732874     Biso  1.000000 H
   H8         1.0     0.237502      0.929695      0.639496     Biso  1.000000 H
