#======================================================================

# CRYSTAL DATA

#----------------------------------------------------------------------

data_VESTA_phase_1


_chemical_name_common                  '1                                     '
_cell_length_a                         4.51162
_cell_length_b                         8.49118
_cell_length_c                         4.53377
_cell_angle_alpha                      90.00001
_cell_angle_beta                       90.03014
_cell_angle_gamma                      90.00001
_space_group_name_H-M_alt              'P 1'
_space_group_IT_number                 1

loop_
_space_group_symop_operation_xyz
   'x, y, z'

loop_
   _atom_site_label
   _atom_site_occupancy
   _atom_site_fract_x
   _atom_site_fract_y
   _atom_site_fract_z
   _atom_site_adp_type
   _atom_site_B_iso_or_equiv
   _atom_site_type_symbol
   C1         1.0     0.324815      0.182337      0.198097     Biso  1.000000 C
   C2         1.0     0.227675      0.181297      0.881860     Biso  1.000000 C
   C3         1.0     0.824758      0.817650      0.801883     Biso  1.000000 C
   C4         1.0     0.727882      0.818762      0.118198     Biso  1.000000 C
   C5         1.0     0.324815      0.317663      0.698097     Biso  1.000000 C
   C6         1.0     0.227675      0.318703      0.381861     Biso  1.000000 C
   C7         1.0     0.824758      0.682350      0.301882     Biso  1.000000 C
   C8         1.0     0.727881      0.681238      0.618198     Biso  1.000000 C
   F1         1.0     0.635658      0.167232      0.213989     Biso  1.000000 F
   F2         1.0     0.219012      0.039726      0.319760     Biso  1.000000 F
   F3         1.0     0.135615      0.832784      0.786299     Biso  1.000000 F
   F4         1.0     0.718940      0.960271      0.680197     Biso  1.000000 F
   F5         1.0     0.635659      0.332768      0.713989     Biso  1.000000 F
   F6         1.0     0.219012      0.460274      0.819760     Biso  1.000000 F
   F7         1.0     0.135614      0.667217      0.286299     Biso  1.000000 F
   F8         1.0     0.718940      0.539729      0.180197     Biso  1.000000 F
   H1         1.0     0.488710      0.675454      0.625025     Biso  1.000000 H
   H2         1.0     0.813050      0.575544      0.717069     Biso  1.000000 H
   H3         1.0     0.988809      0.175464      0.874705     Biso  1.000000 H
   H4         1.0     0.313077      0.075494      0.782918     Biso  1.000000 H
   H5         1.0     0.488711      0.824546      0.125025     Biso  1.000000 H
   H6         1.0     0.813050      0.924456      0.217069     Biso  1.000000 H
   H7         1.0     0.988809      0.324536      0.374705     Biso  1.000000 H
   H8         1.0     0.313077      0.424506      0.282918     Biso  1.000000 H
