#======================================================================

# CRYSTAL DATA

#----------------------------------------------------------------------

data_VESTA_phase_1


_chemical_name_common                  'COMMENT                               '
_cell_length_a                         9.36193
_cell_length_b                         5.34490
_cell_length_c                         5.13370
_cell_angle_alpha                      90.00667
_cell_angle_beta                       90.00429
_cell_angle_gamma                      86.49723
_space_group_name_H-M_alt              'P 1'
_space_group_IT_number                 1

loop_
_space_group_symop_operation_xyz
   'x, y, z'

loop_
   _atom_site_label
   _atom_site_occupancy
   _atom_site_fract_x
   _atom_site_fract_y
   _atom_site_fract_z
   _atom_site_adp_type
   _atom_site_B_iso_or_equiv
   _atom_site_type_symbol
   C1         1.0     0.780405      0.912597      0.401624     Biso  1.000000 C
   C2         1.0     0.780368      0.912636      0.907026     Biso  1.000000 C
   C3         1.0     0.753745      0.764635      0.654243     Biso  1.000000 C
   C4         1.0     0.740601      0.767175      0.154245     Biso  1.000000 C
   C5         1.0     0.846772      0.533605      0.654286     Biso  1.000000 C
   C6         1.0     0.587528      0.723089      0.154279     Biso  1.000000 C
   C7         1.0     0.219731      0.087285      0.901548     Biso  1.000000 C
   C8         1.0     0.219727      0.087292      0.407050     Biso  1.000000 C
   C9         1.0     0.246371      0.235360      0.154264     Biso  1.000000 C
   C10        1.0     0.259478      0.232706      0.654270     Biso  1.000000 C
   C11        1.0     0.153171      0.466323      0.154295     Biso  1.000000 C
   C12        1.0     0.412475      0.277325      0.654308     Biso  1.000000 C
   H1         1.0     0.893053      0.950897      0.387063     Biso  1.000000 H
   H2         1.0     0.717503      0.091028      0.898530     Biso  1.000000 H
   H3         1.0     0.717513      0.091052      0.410074     Biso  1.000000 H
   H4         1.0     0.893047      0.950926      0.921561     Biso  1.000000 H
   H5         1.0     0.642670      0.709356      0.654251     Biso  1.000000 H
   H6         1.0     0.799396      0.583054      0.154250     Biso  1.000000 H
   H7         1.0     0.106986      0.049442      0.886759     Biso  1.000000 H
   H8         1.0     0.282396      0.908758      0.398624     Biso  1.000000 H
   H9         1.0     0.282403      0.908753      0.909900     Biso  1.000000 H
   H10        1.0     0.106979      0.049456      0.421742     Biso  1.000000 H
   H11        1.0     0.357305      0.290996      0.154310     Biso  1.000000 H
   H12        1.0     0.200176      0.416615      0.654315     Biso  1.000000 H
   N1         1.0     0.927567      0.360081      0.654269     Biso  1.000000 N
   N2         1.0     0.465652      0.692500      0.154273     Biso  1.000000 N
   N3         1.0     0.072605      0.639919      0.154321     Biso  1.000000 N
   N4         1.0     0.534378      0.307141      0.654315     Biso  1.000000 N
