#======================================================================

# CRYSTAL DATA

#----------------------------------------------------------------------

data_VESTA_phase_1


_chemical_name_common                  'COMMENT                               '
_cell_length_a                         5.69306
_cell_length_b                         8.57895
_cell_length_c                         5.13072
_cell_angle_alpha                      90.00079
_cell_angle_beta                       90.00003
_cell_angle_gamma                      103.69790
_space_group_name_H-M_alt              'P 1'
_space_group_IT_number                 1

loop_
_space_group_symop_operation_xyz
   'x, y, z'

loop_
   _atom_site_label
   _atom_site_occupancy
   _atom_site_fract_x
   _atom_site_fract_y
   _atom_site_fract_z
   _atom_site_adp_type
   _atom_site_B_iso_or_equiv
   _atom_site_type_symbol
   C1         1.0     0.343660      0.830583      0.404404     Biso  1.000000 C
   C2         1.0     0.343656      0.830586      0.904147     Biso  1.000000 C
   C3         1.0     0.256832      0.733370      0.654268     Biso  1.000000 C
   C4         1.0     0.236039      0.741016      0.154268     Biso  1.000000 C
   C5         1.0     0.334993      0.582037      0.654274     Biso  1.000000 C
   C6         1.0     0.971446      0.713553      0.154272     Biso  1.000000 C
   C7         1.0     0.817046      0.330276      0.404311     Biso  1.000000 C
   C8         1.0     0.817042      0.330276      0.904296     Biso  1.000000 C
   C9         1.0     0.742348      0.230031      0.654298     Biso  1.000000 C
   C10        1.0     0.709688      0.240050      0.154299     Biso  1.000000 C
   C11        1.0     0.844958      0.088084      0.654294     Biso  1.000000 C
   C12        1.0     0.445252      0.212498      0.154302     Biso  1.000000 C
   H1         1.0     0.539605      0.853545      0.389989     Biso  1.000000 H
   H2         1.0     0.288847      0.943528      0.889585     Biso  1.000000 H
   H3         1.0     0.288859      0.943528      0.418969     Biso  1.000000 H
   H4         1.0     0.539605      0.853558      0.918545     Biso  1.000000 H
   H5         1.0     0.058121      0.702280      0.654262     Biso  1.000000 H
   H6         1.0     0.279348      0.622742      0.154266     Biso  1.000000 H
   H7         1.0     0.012987      0.359479      0.385208     Biso  1.000000 H
   H8         1.0     0.754330      0.440126      0.885729     Biso  1.000000 H
   H9         1.0     0.754336      0.440127      0.422873     Biso  1.000000 H
   H10        1.0     0.012984      0.359481      0.923394     Biso  1.000000 H
   H11        1.0     0.544421      0.187029      0.654294     Biso  1.000000 H
   H12        1.0     0.753694      0.121978      0.154294     Biso  1.000000 H
   N1         1.0     0.390613      0.460225      0.654285     Biso  1.000000 N
   N2         1.0     0.761674      0.688001      0.154286     Biso  1.000000 N
   N3         1.0     0.922081      0.974292      0.654284     Biso  1.000000 N
   N4         1.0     0.235535      0.187722      0.154300     Biso  1.000000 N
