#======================================================================

# CRYSTAL DATA

#----------------------------------------------------------------------

data_VESTA_phase_1


_chemical_name_common                  'Primitive monoclinic cell C4H8'
_cell_length_a                         7.89983
_cell_length_b                         4.86471
_cell_length_c                         2.55286
_cell_angle_alpha                      90
_cell_angle_beta                       90
_cell_angle_gamma                      71.74313
_space_group_name_H-M_alt              'P 1'
_space_group_IT_number                 1

loop_
_space_group_symop_operation_xyz
   'x, y, z'

loop_
   _atom_site_label
   _atom_site_occupancy
   _atom_site_fract_x
   _atom_site_fract_y
   _atom_site_fract_z
   _atom_site_adp_type
   _atom_site_B_iso_or_equiv
   _atom_site_type_symbol
   C1         1.0    -0.010487      0.089769      0.250000     Biso  1.000000 C
   C2         1.0     0.023336     -0.091535     -0.250000     Biso  1.000000 C
   C3         1.0     0.488695      0.091534     -0.250000     Biso  1.000000 C
   C4         1.0     0.522529     -0.089771      0.250000     Biso  1.000000 C
   H1         1.0     0.074825      0.233264      0.250000     Biso  1.000000 H
   H2         1.0    -0.150379      0.236784      0.250000     Biso  1.000000 H
   H3         1.0    -0.061928     -0.235109     -0.250000     Biso  1.000000 H
   H4         1.0     0.163245     -0.238476     -0.250000     Biso  1.000000 H
   H5         1.0     0.348774      0.238428     -0.250000     Biso  1.000000 H
   H6         1.0     0.573923      0.235165     -0.250000     Biso  1.000000 H
   H7         1.0     0.662435     -0.236734      0.250000     Biso  1.000000 H
   H8         1.0     0.437250     -0.233318      0.250000     Biso  1.000000 H
