#======================================================================

# CRYSTAL DATA

#----------------------------------------------------------------------

data_VESTA_phase_1


_chemical_name_common                  'COMMENT                               '
_cell_length_a                         6.71139
_cell_length_b                         4.63748
_cell_length_c                         5.12929
_cell_angle_alpha                      90.01773
_cell_angle_beta                       89.89526
_cell_angle_gamma                      89.91245
_space_group_name_H-M_alt              'P 1'
_space_group_IT_number                 1

loop_
_space_group_symop_operation_xyz
   'x, y, z'

loop_
   _atom_site_label
   _atom_site_occupancy
   _atom_site_fract_x
   _atom_site_fract_y
   _atom_site_fract_z
   _atom_site_adp_type
   _atom_site_B_iso_or_equiv
   _atom_site_type_symbol
   C1         1.0     0.204499      0.312811      0.109843     Biso  1.000000 C
   C2         1.0     0.295563      0.187159      0.359604     Biso  1.000000 C
   C3         1.0     0.204478      0.312832      0.609846     Biso  1.000000 C
   C4         1.0     0.295566      0.187153      0.859587     Biso  1.000000 C
   C5         1.0     0.794254      0.814508      0.340196     Biso  1.000000 C
   C6         1.0     0.705689      0.685505      0.590361     Biso  1.000000 C
   C7         1.0     0.794253      0.814508      0.840199     Biso  1.000000 C
   C8         1.0     0.705686      0.685501      0.090361     Biso  1.000000 C
   H1         1.0     0.275979      0.951981      0.359675     Biso  1.000000 H
   H2         1.0     0.456885      0.225066      0.359247     Biso  1.000000 H
   H3         1.0     0.224106      0.547980      0.109930     Biso  1.000000 H
   H4         1.0     0.043172      0.274942      0.110208     Biso  1.000000 H
   H5         1.0     0.224092      0.548008      0.609938     Biso  1.000000 H
   H6         1.0     0.043153      0.274955      0.610215     Biso  1.000000 H
   H7         1.0     0.275979      0.951976      0.859631     Biso  1.000000 H
   H8         1.0     0.456888      0.225061      0.859201     Biso  1.000000 H
   H9         1.0     0.543637      0.717372      0.590786     Biso  1.000000 H
   H10        1.0     0.730008      0.451217      0.590154     Biso  1.000000 H
   H11        1.0     0.956308      0.782649      0.339800     Biso  1.000000 H
   H12        1.0     0.769928      0.048792      0.340233     Biso  1.000000 H
   H13        1.0     0.956308      0.782648      0.839806     Biso  1.000000 H
   H14        1.0     0.769929      0.048791      0.840239     Biso  1.000000 H
   H15        1.0     0.543633      0.717373      0.090786     Biso  1.000000 H
   H16        1.0     0.730005      0.451213      0.090154     Biso  1.000000 H
