#======================================================================

# CRYSTAL DATA

#----------------------------------------------------------------------

data_VESTA_phase_1


_chemical_name_common                  'COMMENT                               '
_cell_length_a                         7.81639
_cell_length_b                         5.54123
_cell_length_c                         10.55379
_cell_angle_alpha                      90.11476
_cell_angle_beta                       90.35139
_cell_angle_gamma                      89.45074
_space_group_name_H-M_alt              'P 1'
_space_group_IT_number                 1

loop_
_space_group_symop_operation_xyz
   'x, y, z'

loop_
   _atom_site_label
   _atom_site_occupancy
   _atom_site_fract_x
   _atom_site_fract_y
   _atom_site_fract_z
   _atom_site_adp_type
   _atom_site_B_iso_or_equiv
   _atom_site_type_symbol
   C1         1.0     0.746708      0.377614      0.607223     Biso  1.000000 C
   C2         1.0     0.753054      0.120830      0.836946     Biso  1.000000 C
   C3         1.0     0.756997      0.377649      0.337179     Biso  1.000000 C
   C4         1.0     0.742887      0.121383      0.106942     Biso  1.000000 C
   C5         1.0     0.662879      0.469797      0.714681     Biso  1.000000 C
   C6         1.0     0.837156      0.028807      0.729574     Biso  1.000000 C
   C7         1.0     0.835912      0.468803      0.228128     Biso  1.000000 C
   C8         1.0     0.664325      0.030102      0.216067     Biso  1.000000 C
   C9         1.0     0.666411      0.343378      0.828921     Biso  1.000000 C
   C10        1.0     0.833536      0.155184      0.615285     Biso  1.000000 C
   C11        1.0     0.828307      0.342767      0.113583     Biso  1.000000 C
   C12        1.0     0.671791      0.156141      0.330534     Biso  1.000000 C
   C13        1.0     0.252695      0.622138      0.102810     Biso  1.000000 C
   C14        1.0     0.247147      0.878980      0.333057     Biso  1.000000 C
   C15        1.0     0.242684      0.622452      0.832654     Biso  1.000000 C
   C16        1.0     0.257356      0.878941      0.603169     Biso  1.000000 C
   C17        1.0     0.336487      0.529656      0.210777     Biso  1.000000 C
   C18        1.0     0.163733      0.971659      0.225001     Biso  1.000000 C
   C19        1.0     0.164890      0.530938      0.722375     Biso  1.000000 C
   C20        1.0     0.335496      0.970245      0.713363     Biso  1.000000 C
   C21        1.0     0.333254      0.656020      0.325316     Biso  1.000000 C
   C22        1.0     0.166829      0.845256      0.110521     Biso  1.000000 C
   C23        1.0     0.172604      0.657101      0.608280     Biso  1.000000 C
   C24        1.0     0.327667      0.844132      0.827514     Biso  1.000000 C
   H1         1.0     0.593312      0.639525      0.708430     Biso  1.000000 H
   H2         1.0     0.906853      0.859110      0.735861     Biso  1.000000 H
   H3         1.0     0.904624      0.637607      0.233146     Biso  1.000000 H
   H4         1.0     0.595850      0.861136      0.211068     Biso  1.000000 H
   H5         1.0     0.597901      0.414989      0.909804     Biso  1.000000 H
   H6         1.0     0.902056      0.083554      0.534403     Biso  1.000000 H
   H7         1.0     0.892762      0.413967      0.031394     Biso  1.000000 H
   H8         1.0     0.607428      0.084872      0.412747     Biso  1.000000 H
   H9         1.0     0.405600      0.359519      0.204792     Biso  1.000000 H
   H10        1.0     0.094916      0.141954      0.230941     Biso  1.000000 H
   H11        1.0     0.096808      0.361706      0.726108     Biso  1.000000 H
   H12        1.0     0.403732      0.139403      0.709596     Biso  1.000000 H
   H13        1.0     0.401457      0.583866      0.406669     Biso  1.000000 H
   H14        1.0     0.098766      0.917519      0.029143     Biso  1.000000 H
   H15        1.0     0.108868      0.585517      0.525173     Biso  1.000000 H
   H16        1.0     0.391448      0.915701      0.910626     Biso  1.000000 H
   S1         1.0     0.753315      0.571623      0.472467     Biso  1.000000 S
   S2         1.0     0.745124      0.927105      0.971724     Biso  1.000000 S
   S3         1.0     0.244250      0.428412      0.967586     Biso  1.000000 S
   S4         1.0     0.254125      0.072942      0.468262     Biso  1.000000 S
