#======================================================================

# CRYSTAL DATA

#----------------------------------------------------------------------

data_VESTA_phase_1


_chemical_name_common                  'COMMENT                               '
_cell_length_a                         7.42925
_cell_length_b                         5.68263
_cell_length_c                         10.45523
_cell_angle_alpha                      90.06299
_cell_angle_beta                       85.39428
_cell_angle_gamma                      90.01216
_space_group_name_H-M_alt              'P 1'
_space_group_IT_number                 1

loop_
_space_group_symop_operation_xyz
   'x, y, z'

loop_
   _atom_site_label
   _atom_site_occupancy
   _atom_site_fract_x
   _atom_site_fract_y
   _atom_site_fract_z
   _atom_site_adp_type
   _atom_site_B_iso_or_equiv
   _atom_site_type_symbol
   C1         1.0     0.747266      0.382507      0.605877     Biso  1.000000 C
   C2         1.0     0.752763      0.117513      0.833942     Biso  1.000000 C
   C3         1.0     0.756292      0.382246      0.333924     Biso  1.000000 C
   C4         1.0     0.743718      0.117712      0.105897     Biso  1.000000 C
   C5         1.0     0.664384      0.468782      0.722299     Biso  1.000000 C
   C6         1.0     0.835659      0.031235      0.717518     Biso  1.000000 C
   C7         1.0     0.835995      0.468663      0.216654     Biso  1.000000 C
   C8         1.0     0.664047      0.031282      0.223170     Biso  1.000000 C
   C9         1.0     0.667215      0.337884      0.834833     Biso  1.000000 C
   C10        1.0     0.832824      0.162143      0.604984     Biso  1.000000 C
   C11        1.0     0.829536      0.338001      0.104139     Biso  1.000000 C
   C12        1.0     0.670460      0.161971      0.335676     Biso  1.000000 C
   C13        1.0     0.247416      0.617600      0.605849     Biso  1.000000 C
   C14        1.0     0.252555      0.882433      0.834315     Biso  1.000000 C
   C15        1.0     0.256349      0.617614      0.333892     Biso  1.000000 C
   C16        1.0     0.243622      0.882371      0.106272     Biso  1.000000 C
   C17        1.0     0.332943      0.838013      0.605322     Biso  1.000000 C
   C18        1.0     0.167054      0.661994      0.834846     Biso  1.000000 C
   C19        1.0     0.335943      0.531314      0.216451     Biso  1.000000 C
   C20        1.0     0.164002      0.968646      0.223707     Biso  1.000000 C
   C21        1.0     0.335547      0.968843      0.718059     Biso  1.000000 C
   C22        1.0     0.164377      0.531226      0.722095     Biso  1.000000 C
   C23        1.0     0.329433      0.662106      0.104170     Biso  1.000000 C
   C24        1.0     0.170553      0.837887      0.335994     Biso  1.000000 C
   H1         1.0     0.596062      0.637314      0.725038     Biso  1.000000 H
   H2         1.0     0.903980      0.862710      0.714785     Biso  1.000000 H
   H3         1.0     0.904442      0.637186      0.213083     Biso  1.000000 H
   H4         1.0     0.595654      0.862714      0.226755     Biso  1.000000 H
   H5         1.0     0.600013      0.406526      0.922627     Biso  1.000000 H
   H6         1.0     0.900026      0.093505      0.517194     Biso  1.000000 H
   H7         1.0     0.893915      0.407069      0.015623     Biso  1.000000 H
   H8         1.0     0.606028      0.092958      0.424196     Biso  1.000000 H
   H9         1.0     0.400299      0.906773      0.517691     Biso  1.000000 H
   H10        1.0     0.099801      0.593178      0.922501     Biso  1.000000 H
   H11        1.0     0.404426      0.362817      0.212594     Biso  1.000000 H
   H12        1.0     0.095479      0.137112      0.227567     Biso  1.000000 H
   H13        1.0     0.403800      0.137438      0.715635     Biso  1.000000 H
   H14        1.0     0.096040      0.362688      0.724498     Biso  1.000000 H
   H15        1.0     0.393694      0.593153      0.015497     Biso  1.000000 H
   H16        1.0     0.106357      0.906876      0.424684     Biso  1.000000 H
   S1         1.0     0.753762      0.573060      0.469907     Biso  1.000000 S
   S2         1.0     0.746242      0.926930      0.969902     Biso  1.000000 S
   S3         1.0     0.254124      0.426942      0.469687     Biso  1.000000 S
   S4         1.0     0.245900      0.073067      0.970490     Biso  1.000000 S
