#======================================================================

# CRYSTAL DATA

#----------------------------------------------------------------------

data_VESTA_phase_1


_chemical_name_common                  'h16 c24 s4                            '
_cell_length_a                         7.88252
_cell_length_b                         5.52175
_cell_length_c                         10.53243
_cell_angle_alpha                      90
_cell_angle_beta                       90
_cell_angle_gamma                      90
_space_group_name_H-M_alt              'P 1'
_space_group_IT_number                 1

loop_
_space_group_symop_operation_xyz
   'x, y, z'

loop_
   _atom_site_label
   _atom_site_occupancy
   _atom_site_fract_x
   _atom_site_fract_y
   _atom_site_fract_z
   _atom_site_adp_type
   _atom_site_B_iso_or_equiv
   _atom_site_type_symbol
   C1         1.0     0.004758      0.370158      0.385118     Biso  1.000000 C
   C2         1.0     0.995242      0.629842      0.614882     Biso  1.000000 C
   C3         1.0     0.495242      0.129842      0.885118     Biso  1.000000 C
   C4         1.0     0.504758      0.870158      0.114882     Biso  1.000000 C
   C5         1.0     0.995242      0.370158      0.114882     Biso  1.000000 C
   C6         1.0     0.004758      0.629842      0.885118     Biso  1.000000 C
   C7         1.0     0.504758      0.129842      0.614882     Biso  1.000000 C
   C8         1.0     0.495242      0.870158      0.385118     Biso  1.000000 C
   C9         1.0     0.086866      0.280258      0.493814     Biso  1.000000 C
   C10        1.0     0.913134      0.719742      0.506186     Biso  1.000000 C
   C11        1.0     0.413134      0.219742      0.993814     Biso  1.000000 C
   C12        1.0     0.586866      0.780258      0.006186     Biso  1.000000 C
   C13        1.0     0.913134      0.280258      0.006186     Biso  1.000000 C
   C14        1.0     0.086866      0.719742      0.993814     Biso  1.000000 C
   C15        1.0     0.586866      0.219742      0.506186     Biso  1.000000 C
   C16        1.0     0.413134      0.780258      0.493814     Biso  1.000000 C
   C17        1.0     0.081767      0.408072      0.608102     Biso  1.000000 C
   C18        1.0     0.918233      0.591928      0.391898     Biso  1.000000 C
   C19        1.0     0.418233      0.091928      0.108102     Biso  1.000000 C
   C20        1.0     0.581767      0.908072      0.891898     Biso  1.000000 C
   C21        1.0     0.918233      0.408072      0.891898     Biso  1.000000 C
   C22        1.0     0.081767      0.591928      0.108102     Biso  1.000000 C
   C23        1.0     0.581767      0.091928      0.391898     Biso  1.000000 C
   C24        1.0     0.418233      0.908072      0.608102     Biso  1.000000 C
   H1         1.0     0.156201      0.111081      0.488527     Biso  1.000000 H
   H2         1.0     0.843799      0.888919      0.511473     Biso  1.000000 H
   H3         1.0     0.343799      0.388919      0.988527     Biso  1.000000 H
   H4         1.0     0.656201      0.611081      0.011473     Biso  1.000000 H
   H5         1.0     0.843799      0.111081      0.011473     Biso  1.000000 H
   H6         1.0     0.156201      0.888919      0.988527     Biso  1.000000 H
   H7         1.0     0.656201      0.388919      0.511473     Biso  1.000000 H
   H8         1.0     0.343799      0.611081      0.488527     Biso  1.000000 H
   H9         1.0     0.148840      0.338090      0.689995     Biso  1.000000 H
   H10        1.0     0.851160      0.661910      0.310005     Biso  1.000000 H
   H11        1.0     0.351160      0.161910      0.189995     Biso  1.000000 H
   H12        1.0     0.648840      0.838090      0.810005     Biso  1.000000 H
   H13        1.0     0.851160      0.338090      0.810005     Biso  1.000000 H
   H14        1.0     0.148840      0.661910      0.189995     Biso  1.000000 H
   H15        1.0     0.648840      0.161910      0.310005     Biso  1.000000 H
   H16        1.0     0.351160      0.838090      0.689995     Biso  1.000000 H
   S1         1.0     0.000000      0.174902      0.250000     Biso  1.000000 S
   S2         1.0     0.000000      0.825098      0.750000     Biso  1.000000 S
   S3         1.0     0.500000      0.325098      0.750000     Biso  1.000000 S
   S4         1.0     0.500000      0.674902      0.250000     Biso  1.000000 S
