#======================================================================

# CRYSTAL DATA

#----------------------------------------------------------------------

data_VESTA_phase_1


_chemical_name_common                  'COMMENT                               '
_cell_length_a                         9.89016
_cell_length_b                         4.94445
_cell_length_c                         5.12508
_cell_angle_alpha                      90.52199
_cell_angle_beta                       89.99895
_cell_angle_gamma                      89.99383
_space_group_name_H-M_alt              'P 1'
_space_group_IT_number                 1

loop_
_space_group_symop_operation_xyz
   'x, y, z'

loop_
   _atom_site_label
   _atom_site_occupancy
   _atom_site_fract_x
   _atom_site_fract_y
   _atom_site_fract_z
   _atom_site_adp_type
   _atom_site_B_iso_or_equiv
   _atom_site_type_symbol
   C1         1.0     0.250714      0.570778      0.884442     Biso  1.000000 C
   C2         1.0     0.249300      0.570777      0.384468     Biso  1.000000 C
   C3         1.0     0.246199      0.403205      0.633015     Biso  1.000000 C
   C4         1.0     0.253809      0.403185      0.133011     Biso  1.000000 C
   C5         1.0     0.750700      0.429223      0.365533     Biso  1.000000 C
   C6         1.0     0.749286      0.429222      0.865557     Biso  1.000000 C
   C7         1.0     0.753801      0.596794      0.116982     Biso  1.000000 C
   C8         1.0     0.746191      0.596813      0.616992     Biso  1.000000 C
   Cl1        1.0     0.087631      0.193498      0.631956     Biso  1.000000 Cl
   Cl2        1.0     0.412360      0.193409      0.131955     Biso  1.000000 Cl
   Cl3        1.0     0.912372      0.806501      0.118047     Biso  1.000000 Cl
   Cl4        1.0     0.587636      0.806591      0.618045     Biso  1.000000 Cl
   H1         1.0     0.340613      0.699969      0.877264     Biso  1.000000 H
   H2         1.0     0.337829      0.703606      0.393800     Biso  1.000000 H
   H3         1.0     0.159406      0.700023      0.377262     Biso  1.000000 H
   H4         1.0     0.162193      0.703658      0.893832     Biso  1.000000 H
   H5         1.0     0.326359      0.251906      0.631116     Biso  1.000000 H
   H6         1.0     0.173634      0.251931      0.131118     Biso  1.000000 H
   H7         1.0     0.662169      0.296388      0.356195     Biso  1.000000 H
   H8         1.0     0.659385      0.300029      0.872741     Biso  1.000000 H
   H9         1.0     0.837810      0.296342      0.856166     Biso  1.000000 H
   H10        1.0     0.840596      0.299974      0.372740     Biso  1.000000 H
   H11        1.0     0.673640      0.748103      0.118884     Biso  1.000000 H
   H12        1.0     0.826367      0.748075      0.618879     Biso  1.000000 H
