#======================================================================

# CRYSTAL DATA

#----------------------------------------------------------------------

data_VESTA_phase_1


_chemical_name_common                  'New structure                         '
_cell_length_a                         9.73900
_cell_length_b                         5.01482
_cell_length_c                         5.12940
_cell_angle_alpha                      90.00030
_cell_angle_beta                       89.99989
_cell_angle_gamma                      90.00105
_space_group_name_H-M_alt              'P 1'
_space_group_IT_number                 1

loop_
_space_group_symop_operation_xyz
   'x, y, z'

loop_
   _atom_site_label
   _atom_site_occupancy
   _atom_site_fract_x
   _atom_site_fract_y
   _atom_site_fract_z
   _atom_site_adp_type
   _atom_site_B_iso_or_equiv
   _atom_site_type_symbol
   C1         1.0     0.250001      0.948160      0.999999     Biso  1.000000 C
   C2         1.0     0.749997      0.051840      1.000000     Biso  1.000000 C
   C3         1.0     0.750003      0.051840      0.500001     Biso  1.000000 C
   C4         1.0     0.250000      0.948160      0.500001     Biso  1.000000 C
   C5         1.0     0.252465      0.113423      0.250001     Biso  1.000000 C
   C6         1.0     0.747536      0.886580      0.749997     Biso  1.000000 C
   C7         1.0     0.752463      0.886579      0.249997     Biso  1.000000 C
   C8         1.0     0.247535      0.113421      0.750003     Biso  1.000000 C
   Cl1        1.0     0.411413      0.325530      0.250000     Biso  1.000000 Cl
   Cl2        1.0     0.588588      0.674468      0.750002     Biso  1.000000 Cl
   Cl3        1.0     0.911411      0.674475      0.250001     Biso  1.000000 Cl
   Cl4        1.0     0.088589      0.325523      0.750001     Biso  1.000000 Cl
   H1         1.0     0.159309      0.818967      0.006734     Biso  1.000000 H
   H2         1.0     0.840695      0.181031      0.993267     Biso  1.000000 H
   H3         1.0     0.840684      0.181038      0.506731     Biso  1.000000 H
   H4         1.0     0.159311      0.818965      0.493267     Biso  1.000000 H
   H5         1.0     0.659304      0.181026      0.493267     Biso  1.000000 H
   H6         1.0     0.340691      0.818970      0.506733     Biso  1.000000 H
   H7         1.0     0.340688      0.818968      0.993267     Biso  1.000000 H
   H8         1.0     0.659315      0.181033      0.006732     Biso  1.000000 H
   H9         1.0     0.169802      0.259914      0.250003     Biso  1.000000 H
   H10        1.0     0.830200      0.740087      0.749995     Biso  1.000000 H
   H11        1.0     0.669799      0.740084      0.249996     Biso  1.000000 H
   H12        1.0     0.330200      0.259918      0.750003     Biso  1.000000 H
